<?xml version="1.0" encoding="UTF-8"?>

<!-- generated on 11/20/18 13:00:31 by Eclipse SUMO netedit Version 1.0.1
<configuration xmlns:xsi="http://www.w3.org/2001/XMLSchema-instance" xsi:noNamespaceSchemaLocation="http://sumo.dlr.de/xsd/netconvertConfiguration.xsd">

    <input>
        <sumo-net-file value="C:\Users\Shekar\Desktop\siouxfalls_enhanced\network\SF_combined.net.xml"/>
    </input>

    <output>
        <output-file value="C:\Users\Shekar\Desktop\siouxfalls_enhanced\network\SF_combined_junctions.net.xml"/>
    </output>

    <processing>
        <offset.disable-normalization value="true"/>
        <lefthand value="false"/>
    </processing>

    <junctions>
        <no-turnarounds value="true"/>
        <junctions.corner-detail value="0"/>
        <junctions.limit-turn-speed value="-1"/>
        <rectangular-lane-cut value="false"/>
    </junctions>

    <pedestrian>
        <walkingareas value="false"/>
    </pedestrian>

</configuration>
-->

<net version="1.0" xmlns:xsi="http://www.w3.org/2001/XMLSchema-instance" xsi:noNamespaceSchemaLocation="http://sumo.dlr.de/xsd/net_file.xsd">

    <location netOffset="-679322.03,-4820339.81" convBoundary="0.00,0.00,6963.89,10896.37" origBoundary="679322.03,4820339.81,686285.93,4831236.18" projParameter="!"/>

    <edge id=":1_0" function="internal">
        <lane id=":1_0_0" index="0" speed="25.00" length="29.99" shape="598.66,10902.99 590.35,10902.86 584.28,10900.05 580.44,10894.57 578.85,10886.42"/>
    </edge>
    <edge id=":1_1" function="internal">
        <lane id=":1_1_0" index="0" speed="25.00" length="24.54" shape="598.25,10899.81 591.46,10899.71 586.49,10897.41 583.35,10892.93 582.04,10886.26"/>
    </edge>
    <edge id=":1_2" function="internal">
        <lane id=":1_2_0" index="0" speed="25.00" length="19.09" shape="597.85,10896.64 592.56,10896.56 588.70,10894.77 586.26,10891.29 585.24,10886.10"/>
    </edge>
    <edge id=":1_3" function="internal">
        <lane id=":1_3_0" index="0" speed="25.00" length="2.56" shape="597.85,10896.64 596.55,10896.00 596.06,10895.26 596.13,10895.05"/>
    </edge>
    <edge id=":1_8" function="internal">
        <lane id=":1_8_0" index="0" speed="25.00" length="2.11" shape="596.13,10895.05 596.35,10894.41 597.44,10893.47"/>
    </edge>
    <edge id=":1_4" function="internal">
        <lane id=":1_4_0" index="0" speed="25.00" length="2.73" shape="594.83,10885.61 594.97,10886.35 595.32,10886.85 595.87,10887.11 596.63,10887.12"/>
    </edge>
    <edge id=":1_5" function="internal">
        <lane id=":1_5_0" index="0" speed="25.00" length="8.18" shape="591.63,10885.77 592.07,10888.00 593.11,10889.49 594.77,10890.26 597.03,10890.29"/>
    </edge>
    <edge id=":1_6" function="internal">
        <lane id=":1_6_0" index="0" speed="25.00" length="13.63" shape="588.43,10885.94 589.16,10889.64 590.90,10892.13 593.66,10893.41 597.44,10893.47"/>
    </edge>
    <edge id=":1_7" function="internal">
        <lane id=":1_7_0" index="0" speed="25.00" length="2.08" shape="588.43,10885.94 587.70,10887.17 587.14,10887.49"/>
    </edge>
    <edge id=":1_9" function="internal">
        <lane id=":1_9_0" index="0" speed="25.00" length="2.59" shape="587.14,10887.49 586.92,10887.61 586.10,10887.26 585.24,10886.10"/>
    </edge>
    <edge id=":10_0" function="internal">
        <lane id=":10_0_0" index="0" speed="13.90" length="33.42" shape="3993.09,3469.90 3979.03,3467.97 3968.97,3467.42 3962.91,3468.27 3960.84,3470.49"/>
    </edge>
    <edge id=":10_1" function="internal">
        <lane id=":10_1_0" index="0" speed="13.90" length="48.27" shape="3993.09,3469.90 3982.89,3468.25 3969.32,3466.16 3955.72,3464.25 3945.46,3463.15"/>
        <lane id=":10_1_1" index="1" speed="13.90" length="48.27" shape="3993.60,3466.74 3983.35,3465.09 3969.67,3462.98 3955.98,3461.06 3945.66,3459.96"/>
    </edge>
    <edge id=":10_3" function="internal">
        <lane id=":10_3_0" index="0" speed="13.90" length="46.00" shape="3993.60,3466.74 3976.60,3463.11 3964.52,3458.57 3957.38,3453.12 3955.17,3446.76"/>
    </edge>
    <edge id=":10_4" function="internal">
        <lane id=":10_4_0" index="0" speed="13.90" length="24.18" shape="3993.60,3466.74 3988.00,3463.66 3986.03,3458.32 3987.74,3452.88 3993.19,3449.54"/>
    </edge>
    <edge id=":10_5" function="internal">
        <lane id=":10_5_0" index="0" speed="13.90" length="2.34" shape="3993.60,3466.74 3992.55,3465.75 3992.28,3464.90"/>
    </edge>
    <edge id=":10_30" function="internal">
        <lane id=":10_30_0" index="0" speed="13.90" length="2.34" shape="3992.28,3464.90 3992.81,3464.18 3994.12,3463.58"/>
    </edge>
    <edge id=":10_6" function="internal">
        <lane id=":10_6_0" index="0" speed="13.90" length="13.35" shape="3994.52,3455.80 3989.94,3457.07 3988.43,3458.26 3990.00,3459.38 3994.63,3460.42"/>
    </edge>
    <edge id=":10_7" function="internal">
        <lane id=":10_7_0" index="0" speed="13.90" length="37.89" shape="3994.52,3455.80 3979.85,3459.39 3969.35,3463.04 3963.02,3466.74 3960.84,3470.49"/>
    </edge>
    <edge id=":10_8" function="internal">
        <lane id=":10_8_0" index="0" speed="13.90" length="49.24" shape="3994.52,3455.80 3984.13,3457.92 3970.07,3460.49 3955.96,3462.56 3945.46,3463.15"/>
        <lane id=":10_8_1" index="1" speed="13.90" length="49.24" shape="3993.86,3452.67 3983.60,3454.78 3969.83,3457.33 3956.03,3459.38 3945.66,3459.96"/>
    </edge>
    <edge id=":10_10" function="internal">
        <lane id=":10_10_0" index="0" speed="13.90" length="36.96" shape="3993.86,3452.67 3983.63,3454.03 3970.70,3454.24 3959.68,3452.19 3958.08,3450.27"/>
    </edge>
    <edge id=":10_11" function="internal">
        <lane id=":10_11_0" index="0" speed="13.90" length="4.67" shape="3993.86,3452.67 3992.52,3452.14 3991.96,3451.44 3992.18,3450.57 3993.19,3449.54"/>
    </edge>
    <edge id=":10_31" function="internal">
        <lane id=":10_31_0" index="0" speed="13.90" length="4.56" shape="3958.08,3450.27 3955.17,3446.76"/>
    </edge>
    <edge id=":10_12" function="internal">
        <lane id=":10_12_0" index="0" speed="13.90" length="32.32" shape="3961.56,3447.00 3963.41,3449.23 3969.19,3449.88 3978.89,3448.94 3992.52,3446.41"/>
    </edge>
    <edge id=":10_13" function="internal">
        <lane id=":10_13_0" index="0" speed="13.90" length="37.11" shape="3961.56,3447.00 3963.52,3450.83 3969.68,3454.34 3980.05,3457.54 3994.63,3460.42"/>
    </edge>
    <edge id=":10_14" function="internal">
        <lane id=":10_14_0" index="0" speed="13.90" length="23.52" shape="3961.56,3447.00 3960.84,3470.49"/>
        <lane id=":10_14_1" index="1" speed="13.90" length="23.52" shape="3958.37,3446.88 3957.65,3470.42"/>
    </edge>
    <edge id=":10_16" function="internal">
        <lane id=":10_16_0" index="0" speed="13.90" length="7.76" shape="3958.37,3446.88 3957.38,3452.89 3956.54,3454.33"/>
    </edge>
    <edge id=":10_17" function="internal">
        <lane id=":10_17_0" index="0" speed="13.90" length="2.34" shape="3958.37,3446.88 3957.52,3448.05 3956.71,3448.42"/>
    </edge>
    <edge id=":10_32" function="internal">
        <lane id=":10_32_0" index="0" speed="13.90" length="13.13" shape="3956.54,3454.33 3954.93,3457.08 3951.03,3459.43 3945.66,3459.96"/>
    </edge>
    <edge id=":10_33" function="internal">
        <lane id=":10_33_0" index="0" speed="13.90" length="2.34" shape="3956.71,3448.42 3955.92,3447.99 3955.17,3446.76"/>
    </edge>
    <edge id=":10_18" function="internal">
        <lane id=":10_18_0" index="0" speed="13.90" length="10.39" shape="3946.07,3453.57 3948.55,3453.27 3950.36,3452.02 3951.50,3449.81 3951.97,3446.64"/>
    </edge>
    <edge id=":10_19" function="internal">
        <lane id=":10_19_0" index="0" speed="13.90" length="47.08" shape="3946.07,3453.57 3956.16,3453.01 3969.37,3451.01 3982.54,3448.50 3992.52,3446.41"/>
    </edge>
    <edge id=":10_20" function="internal">
        <lane id=":10_20_0" index="0" speed="13.90" length="48.90" shape="3946.07,3453.57 3956.48,3454.68 3970.39,3456.63 3984.29,3458.76 3994.63,3460.42"/>
        <lane id=":10_20_1" index="1" speed="13.90" length="48.90" shape="3945.86,3456.76 3956.23,3457.87 3970.03,3459.81 3983.82,3461.92 3994.12,3463.58"/>
    </edge>
    <edge id=":10_22" function="internal">
        <lane id=":10_22_0" index="0" speed="13.90" length="20.38" shape="3945.86,3456.76 3951.13,3457.91 3954.85,3460.56 3957.02,3464.73 3957.65,3470.42"/>
    </edge>
    <edge id=":10_23" function="internal">
        <lane id=":10_23_0" index="0" speed="13.90" length="2.34" shape="3945.86,3456.76 3947.01,3457.64 3947.36,3458.46"/>
    </edge>
    <edge id=":10_34" function="internal">
        <lane id=":10_34_0" index="0" speed="13.90" length="2.34" shape="3947.36,3458.46 3946.91,3459.24 3945.66,3459.96"/>
    </edge>
    <edge id=":10_24" function="internal">
        <lane id=":10_24_0" index="0" speed="13.90" length="10.36" shape="3951.25,3470.27 3950.94,3467.30 3949.88,3465.12 3948.05,3463.74 3945.46,3463.15"/>
    </edge>
    <edge id=":10_25" function="internal">
        <lane id=":10_25_0" index="0" speed="13.90" length="23.62" shape="3951.25,3470.27 3951.97,3446.64"/>
        <lane id=":10_25_1" index="1" speed="13.90" length="23.62" shape="3954.45,3470.34 3955.17,3446.76"/>
    </edge>
    <edge id=":10_27" function="internal">
        <lane id=":10_27_0" index="0" speed="13.90" length="4.46" shape="3954.45,3470.34 3956.17,3466.23"/>
    </edge>
    <edge id=":10_28" function="internal">
        <lane id=":10_28_0" index="0" speed="13.90" length="2.49" shape="3954.45,3470.34 3956.10,3468.49"/>
    </edge>
    <edge id=":10_29" function="internal">
        <lane id=":10_29_0" index="0" speed="13.90" length="2.34" shape="3954.45,3470.34 3955.27,3469.16 3956.08,3468.78"/>
    </edge>
    <edge id=":10_35" function="internal">
        <lane id=":10_35_0" index="0" speed="13.90" length="41.64" shape="3956.17,3466.23 3956.98,3464.31 3964.28,3458.84 3976.35,3453.91 3993.19,3449.54"/>
    </edge>
    <edge id=":10_36" function="internal">
        <lane id=":10_36_0" index="0" speed="13.90" length="39.92" shape="3956.10,3468.49 3959.36,3464.84 3970.67,3462.61 3983.79,3462.55 3994.12,3463.58"/>
    </edge>
    <edge id=":10_37" function="internal">
        <lane id=":10_37_0" index="0" speed="13.90" length="2.34" shape="3956.08,3468.78 3956.87,3469.20 3957.65,3470.42"/>
    </edge>
    <edge id=":11_0" function="internal">
        <lane id=":11_0_0" index="0" speed="13.90" length="9.03" shape="1586.10,3313.61 1583.62,3313.81 1581.83,3314.76 1580.71,3316.45 1580.28,3318.90"/>
    </edge>
    <edge id=":11_1" function="internal">
        <lane id=":11_1_0" index="0" speed="13.90" length="20.93" shape="1586.10,3313.61 1565.25,3312.73"/>
        <lane id=":11_1_1" index="1" speed="13.90" length="20.93" shape="1586.30,3310.42 1565.32,3309.53"/>
    </edge>
    <edge id=":11_3" function="internal">
        <lane id=":11_3_0" index="0" speed="13.90" length="6.83" shape="1586.30,3310.42 1581.02,3309.34 1579.82,3308.54"/>
    </edge>
    <edge id=":11_4" function="internal">
        <lane id=":11_4_0" index="0" speed="13.90" length="2.34" shape="1586.30,3310.42 1585.16,3309.54 1584.81,3308.72"/>
    </edge>
    <edge id=":11_20" function="internal">
        <lane id=":11_20_0" index="0" speed="13.90" length="12.81" shape="1579.82,3308.54 1577.28,3306.86 1575.08,3302.98 1574.43,3297.71"/>
    </edge>
    <edge id=":11_21" function="internal">
        <lane id=":11_21_0" index="0" speed="13.90" length="2.34" shape="1584.81,3308.72 1585.26,3307.95 1586.51,3307.22"/>
    </edge>
    <edge id=":11_5" function="internal">
        <lane id=":11_5_0" index="0" speed="13.90" length="9.64" shape="1580.83,3297.84 1581.15,3300.41 1582.24,3302.29 1584.09,3303.50 1586.71,3304.03"/>
    </edge>
    <edge id=":11_6" function="internal">
        <lane id=":11_6_0" index="0" speed="13.90" length="21.05" shape="1580.83,3297.84 1580.28,3318.90"/>
        <lane id=":11_6_1" index="1" speed="13.90" length="21.05" shape="1577.63,3297.78 1577.09,3318.80"/>
    </edge>
    <edge id=":11_8" function="internal">
        <lane id=":11_8_0" index="0" speed="13.90" length="7.02" shape="1577.63,3297.78 1576.77,3303.01 1575.86,3304.46"/>
    </edge>
    <edge id=":11_9" function="internal">
        <lane id=":11_9_0" index="0" speed="13.90" length="2.34" shape="1577.63,3297.78 1576.80,3298.96 1576.00,3299.34"/>
    </edge>
    <edge id=":11_22" function="internal">
        <lane id=":11_22_0" index="0" speed="13.90" length="12.39" shape="1575.86,3304.46 1574.43,3306.72 1570.62,3308.89 1565.32,3309.53"/>
    </edge>
    <edge id=":11_23" function="internal">
        <lane id=":11_23_0" index="0" speed="13.90" length="2.34" shape="1576.00,3299.34 1575.21,3298.93 1574.43,3297.71"/>
    </edge>
    <edge id=":11_10" function="internal">
        <lane id=":11_10_0" index="0" speed="13.90" length="9.08" shape="1565.46,3303.13 1567.94,3302.83 1569.73,3301.82 1570.83,3300.09 1571.23,3297.65"/>
    </edge>
    <edge id=":11_11" function="internal">
        <lane id=":11_11_0" index="0" speed="13.90" length="21.20" shape="1565.46,3303.13 1586.71,3304.03"/>
        <lane id=":11_11_1" index="1" speed="13.90" length="21.20" shape="1565.39,3306.33 1586.51,3307.22"/>
    </edge>
    <edge id=":11_13" function="internal">
        <lane id=":11_13_0" index="0" speed="13.90" length="7.22" shape="1565.39,3306.33 1570.65,3307.20 1572.24,3308.22"/>
    </edge>
    <edge id=":11_14" function="internal">
        <lane id=":11_14_0" index="0" speed="13.90" length="2.34" shape="1565.39,3306.33 1566.57,3307.15 1566.96,3307.96"/>
    </edge>
    <edge id=":11_24" function="internal">
        <lane id=":11_24_0" index="0" speed="13.90" length="12.33" shape="1572.24,3308.22 1574.35,3309.57 1576.50,3313.44 1577.09,3318.80"/>
    </edge>
    <edge id=":11_25" function="internal">
        <lane id=":11_25_0" index="0" speed="13.90" length="2.34" shape="1566.96,3307.96 1566.54,3308.75 1565.32,3309.53"/>
    </edge>
    <edge id=":11_15" function="internal">
        <lane id=":11_15_0" index="0" speed="13.90" length="9.15" shape="1570.69,3318.60 1570.42,3316.08 1569.42,3314.25 1567.70,3313.14 1565.25,3312.73"/>
    </edge>
    <edge id=":11_16" function="internal">
        <lane id=":11_16_0" index="0" speed="13.90" length="20.98" shape="1570.69,3318.60 1571.23,3297.65"/>
        <lane id=":11_16_1" index="1" speed="13.90" length="20.98" shape="1573.89,3318.70 1574.43,3297.71"/>
    </edge>
    <edge id=":11_18" function="internal">
        <lane id=":11_18_0" index="0" speed="13.90" length="6.92" shape="1573.89,3318.70 1574.82,3313.39 1575.66,3312.11"/>
    </edge>
    <edge id=":11_19" function="internal">
        <lane id=":11_19_0" index="0" speed="13.90" length="2.34" shape="1573.89,3318.70 1574.72,3317.53 1575.54,3317.15"/>
    </edge>
    <edge id=":11_26" function="internal">
        <lane id=":11_26_0" index="0" speed="13.90" length="12.67" shape="1575.66,3312.11 1577.23,3309.71 1581.13,3307.65 1586.51,3307.22"/>
    </edge>
    <edge id=":11_27" function="internal">
        <lane id=":11_27_0" index="0" speed="13.90" length="2.34" shape="1575.54,3317.15 1576.32,3317.58 1577.09,3318.80"/>
    </edge>
    <edge id=":12_0" function="internal">
        <lane id=":12_0_0" index="0" speed="25.00" length="22.85" shape="-6.62,3287.20 -7.39,3280.33 -7.78,3275.61 -7.87,3270.88 -7.73,3263.97"/>
        <lane id=":12_0_1" index="1" speed="25.00" length="22.85" shape="-3.44,3286.84 -4.20,3280.10 -4.58,3275.47 -4.66,3270.83 -4.53,3264.06"/>
        <lane id=":12_0_2" index="2" speed="25.00" length="22.85" shape="-0.26,3286.48 -1.00,3279.87 -1.38,3275.33 -1.46,3270.78 -1.33,3264.14"/>
    </edge>
    <edge id=":12_3" function="internal">
        <lane id=":12_3_0" index="0" speed="19.45" length="6.85" shape="-0.26,3286.48 0.09,3280.60 0.60,3279.78"/>
    </edge>
    <edge id=":12_4" function="internal">
        <lane id=":12_4_0" index="0" speed="25.00" length="2.34" shape="-0.26,3286.48 0.39,3285.20 1.14,3284.71"/>
    </edge>
    <edge id=":12_14" function="internal">
        <lane id=":12_14_0" index="0" speed="19.45" length="16.44" shape="0.60,3279.78 2.68,3276.44 7.51,3274.02 14.58,3273.33"/>
    </edge>
    <edge id=":12_15" function="internal">
        <lane id=":12_15_0" index="0" speed="25.00" length="2.34" shape="1.14,3284.71 1.98,3285.02 2.91,3286.12"/>
    </edge>
    <edge id=":12_5" function="internal">
        <lane id=":12_5_0" index="0" speed="19.45" length="9.05" shape="14.45,3279.73 11.94,3280.04 10.24,3281.08 9.35,3282.87 9.27,3285.40"/>
    </edge>
    <edge id=":12_6" function="internal">
        <lane id=":12_6_0" index="0" speed="19.45" length="25.58" shape="14.51,3276.53 6.07,3275.60 0.08,3273.20 -3.46,3269.36 -4.53,3264.06"/>
    </edge>
    <edge id=":12_7" function="internal">
        <lane id=":12_7_0" index="0" speed="19.45" length="22.82" shape="14.51,3276.53 7.47,3275.63 2.48,3273.26 -0.46,3269.43 -1.33,3264.14"/>
    </edge>
    <edge id=":12_8" function="internal">
        <lane id=":12_8_0" index="0" speed="13.90" length="2.34" shape="14.51,3276.53 13.33,3275.70 12.95,3274.90"/>
    </edge>
    <edge id=":12_16" function="internal">
        <lane id=":12_16_0" index="0" speed="13.90" length="2.34" shape="12.95,3274.90 13.37,3274.10 14.58,3273.33"/>
    </edge>
    <edge id=":12_9" function="internal">
        <lane id=":12_9_0" index="0" speed="19.45" length="9.79" shape="8.27,3264.39 8.61,3266.85 9.79,3268.63 11.80,3269.72 14.65,3270.13"/>
    </edge>
    <edge id=":12_10" function="internal">
        <lane id=":12_10_0" index="0" speed="25.00" length="21.51" shape="8.27,3264.39 8.14,3270.64 8.22,3274.92 8.58,3279.18 9.27,3285.40"/>
        <lane id=":12_10_1" index="1" speed="25.00" length="21.51" shape="5.07,3264.30 4.94,3270.68 5.02,3275.06 5.38,3279.41 6.09,3285.76"/>
        <lane id=":12_10_2" index="2" speed="25.00" length="21.51" shape="1.87,3264.22 1.74,3270.73 1.82,3275.19 2.19,3279.64 2.91,3286.12"/>
    </edge>
    <edge id=":12_13" function="internal">
        <lane id=":12_13_0" index="0" speed="25.00" length="2.34" shape="1.87,3264.22 1.04,3265.40 0.23,3265.78"/>
    </edge>
    <edge id=":12_17" function="internal">
        <lane id=":12_17_0" index="0" speed="25.00" length="2.34" shape="0.23,3265.78 -0.56,3265.36 -1.33,3264.14"/>
    </edge>
    <edge id=":13_0" function="internal">
        <lane id=":13_0_0" index="0" speed="19.45" length="9.03" shape="98.20,5.35 95.73,5.60 93.95,6.59 92.85,8.30 92.43,10.74"/>
    </edge>
    <edge id=":13_1" function="internal">
        <lane id=":13_1_0" index="0" speed="19.45" length="14.25" shape="98.33,2.15 94.44,2.55 91.62,4.10 89.89,6.80 89.24,10.66"/>
    </edge>
    <edge id=":13_2" function="internal">
        <lane id=":13_2_0" index="0" speed="19.45" length="16.93" shape="98.33,2.15 93.04,2.50 89.23,4.02 86.89,6.71 86.04,10.58"/>
    </edge>
    <edge id=":13_3" function="internal">
        <lane id=":13_3_0" index="0" speed="13.90" length="4.67" shape="98.33,2.15 97.16,1.31 96.79,0.49 97.23,-0.29 98.46,-1.04"/>
    </edge>
    <edge id=":13_4" function="internal">
        <lane id=":13_4_0" index="0" speed="19.45" length="29.16" shape="76.44,10.33 78.60,3.78 83.86,-0.86 90.95,-3.54 98.59,-4.24"/>
    </edge>
    <edge id=":13_5" function="internal">
        <lane id=":13_5_0" index="0" speed="19.45" length="24.89" shape="79.64,10.41 80.93,5.12 84.50,1.45 90.34,-0.61 98.46,-1.04"/>
    </edge>
    <edge id=":13_6" function="internal">
        <lane id=":13_6_0" index="0" speed="25.00" length="4.67" shape="82.84,10.50 83.67,9.32 84.48,8.94 85.27,9.36 86.04,10.58"/>
    </edge>
    <edge id=":14_0" function="internal">
        <lane id=":14_0_0" index="0" speed="13.90" length="9.08" shape="1619.08,1677.15 1616.60,1677.46 1614.81,1678.48 1613.71,1680.21 1613.31,1682.65"/>
    </edge>
    <edge id=":14_1" function="internal">
        <lane id=":14_1_0" index="0" speed="13.90" length="14.23" shape="1619.14,1673.95 1615.25,1674.43 1612.46,1676.03 1610.74,1678.75 1610.11,1682.58"/>
    </edge>
    <edge id=":14_2" function="internal">
        <lane id=":14_2_0" index="0" speed="13.90" length="19.41" shape="1619.14,1673.95 1613.88,1673.11 1610.17,1670.78 1608.00,1666.97 1607.38,1661.69"/>
    </edge>
    <edge id=":14_3" function="internal">
        <lane id=":14_3_0" index="0" speed="13.90" length="2.34" shape="1619.14,1673.95 1617.95,1673.13 1617.57,1672.33"/>
    </edge>
    <edge id=":14_12" function="internal">
        <lane id=":14_12_0" index="0" speed="13.90" length="2.34" shape="1617.57,1672.33 1617.98,1671.53 1619.19,1670.75"/>
    </edge>
    <edge id=":14_4" function="internal">
        <lane id=":14_4_0" index="0" speed="13.90" length="9.03" shape="1613.78,1661.85 1614.07,1664.31 1615.08,1666.08 1616.80,1667.16 1619.25,1667.55"/>
    </edge>
    <edge id=":14_5" function="internal">
        <lane id=":14_5_0" index="0" speed="13.90" length="20.82" shape="1613.78,1661.85 1613.31,1682.65"/>
        <lane id=":14_5_1" index="1" speed="13.90" length="20.82" shape="1610.58,1661.77 1610.11,1682.58"/>
    </edge>
    <edge id=":14_7" function="internal">
        <lane id=":14_7_0" index="0" speed="13.90" length="2.34" shape="1610.58,1661.77 1609.75,1662.95 1608.94,1663.32"/>
    </edge>
    <edge id=":14_13" function="internal">
        <lane id=":14_13_0" index="0" speed="13.90" length="2.34" shape="1608.94,1663.32 1608.15,1662.91 1607.38,1661.69"/>
    </edge>
    <edge id=":14_8" function="internal">
        <lane id=":14_8_0" index="0" speed="13.90" length="20.85" shape="1603.71,1682.46 1604.18,1661.61"/>
        <lane id=":14_8_1" index="1" speed="13.90" length="20.85" shape="1606.91,1682.52 1607.38,1661.69"/>
    </edge>
    <edge id=":14_10" function="internal">
        <lane id=":14_10_0" index="0" speed="13.90" length="6.97" shape="1606.91,1682.52 1607.77,1677.29 1608.66,1675.88"/>
    </edge>
    <edge id=":14_11" function="internal">
        <lane id=":14_11_0" index="0" speed="13.90" length="2.34" shape="1606.91,1682.52 1607.74,1681.34 1608.54,1680.95"/>
    </edge>
    <edge id=":14_14" function="internal">
        <lane id=":14_14_0" index="0" speed="13.90" length="12.41" shape="1608.66,1675.88 1610.10,1673.59 1613.91,1671.41 1619.19,1670.75"/>
    </edge>
    <edge id=":14_15" function="internal">
        <lane id=":14_15_0" index="0" speed="13.90" length="2.34" shape="1608.54,1680.95 1609.34,1681.37 1610.11,1682.58"/>
    </edge>
    <edge id=":15_0" function="internal">
        <lane id=":15_0_0" index="0" speed="13.90" length="9.03" shape="4031.96,1719.98 4029.49,1720.17 4027.69,1721.11 4026.56,1722.81 4026.12,1725.25"/>
    </edge>
    <edge id=":15_1" function="internal">
        <lane id=":15_1_0" index="0" speed="13.90" length="20.95" shape="4031.96,1719.98 4011.11,1719.11"/>
        <lane id=":15_1_1" index="1" speed="13.90" length="20.95" shape="4032.17,1716.78 4011.16,1715.92"/>
    </edge>
    <edge id=":15_3" function="internal">
        <lane id=":15_3_0" index="0" speed="13.90" length="6.79" shape="4032.17,1716.78 4026.90,1715.70 4025.73,1714.92"/>
    </edge>
    <edge id=":15_4" function="internal">
        <lane id=":15_4_0" index="0" speed="13.90" length="2.34" shape="4032.17,1716.78 4031.03,1715.91 4030.68,1715.08"/>
    </edge>
    <edge id=":15_20" function="internal">
        <lane id=":15_20_0" index="0" speed="13.90" length="12.76" shape="4025.73,1714.92 4023.18,1713.22 4021.02,1709.37 4020.40,1704.12"/>
    </edge>
    <edge id=":15_21" function="internal">
        <lane id=":15_21_0" index="0" speed="13.90" length="2.34" shape="4030.68,1715.08 4031.13,1714.31 4032.38,1713.59"/>
    </edge>
    <edge id=":15_5" function="internal">
        <lane id=":15_5_0" index="0" speed="13.90" length="9.51" shape="4026.80,1704.29 4027.10,1706.82 4028.17,1708.68 4030.00,1709.87 4032.59,1710.40"/>
    </edge>
    <edge id=":15_6" function="internal">
        <lane id=":15_6_0" index="0" speed="13.90" length="20.95" shape="4026.80,1704.29 4026.12,1725.25"/>
        <lane id=":15_6_1" index="1" speed="13.90" length="20.95" shape="4023.60,1704.21 4022.92,1725.13"/>
    </edge>
    <edge id=":15_8" function="internal">
        <lane id=":15_8_0" index="0" speed="13.90" length="6.97" shape="4023.60,1704.21 4022.70,1709.41 4021.78,1710.83"/>
    </edge>
    <edge id=":15_9" function="internal">
        <lane id=":15_9_0" index="0" speed="13.90" length="2.34" shape="4023.60,1704.21 4022.77,1705.39 4021.96,1705.76"/>
    </edge>
    <edge id=":15_22" function="internal">
        <lane id=":15_22_0" index="0" speed="13.90" length="12.46" shape="4021.78,1710.83 4020.33,1713.09 4016.48,1715.26 4011.16,1715.92"/>
    </edge>
    <edge id=":15_23" function="internal">
        <lane id=":15_23_0" index="0" speed="13.90" length="2.34" shape="4021.96,1705.76 4021.17,1705.34 4020.40,1704.12"/>
    </edge>
    <edge id=":15_10" function="internal">
        <lane id=":15_10_0" index="0" speed="13.90" length="9.18" shape="4011.28,1709.52 4013.81,1709.21 4015.64,1708.20 4016.77,1706.47 4017.20,1704.03"/>
    </edge>
    <edge id=":15_11" function="internal">
        <lane id=":15_11_0" index="0" speed="13.90" length="21.25" shape="4011.28,1709.52 4032.59,1710.40"/>
        <lane id=":15_11_1" index="1" speed="13.90" length="21.25" shape="4011.22,1712.72 4032.38,1713.59"/>
    </edge>
    <edge id=":15_13" function="internal">
        <lane id=":15_13_0" index="0" speed="13.90" length="7.28" shape="4011.22,1712.72 4016.51,1713.57 4018.14,1714.60"/>
    </edge>
    <edge id=":15_14" function="internal">
        <lane id=":15_14_0" index="0" speed="13.90" length="2.34" shape="4011.22,1712.72 4012.41,1713.54 4012.79,1714.34"/>
    </edge>
    <edge id=":15_24" function="internal">
        <lane id=":15_24_0" index="0" speed="13.90" length="12.26" shape="4018.14,1714.60 4020.23,1715.93 4022.36,1719.78 4022.92,1725.13"/>
    </edge>
    <edge id=":15_25" function="internal">
        <lane id=":15_25_0" index="0" speed="13.90" length="2.34" shape="4012.79,1714.34 4012.38,1715.14 4011.16,1715.92"/>
    </edge>
    <edge id=":15_15" function="internal">
        <lane id=":15_15_0" index="0" speed="13.90" length="9.07" shape="4016.53,1724.89 4016.27,1722.40 4015.28,1720.61 4013.56,1719.51 4011.11,1719.11"/>
    </edge>
    <edge id=":15_16" function="internal">
        <lane id=":15_16_0" index="0" speed="13.90" length="20.88" shape="4016.53,1724.89 4017.20,1704.03"/>
        <lane id=":15_16_1" index="1" speed="13.90" length="20.88" shape="4019.72,1725.01 4020.40,1704.12"/>
    </edge>
    <edge id=":15_18" function="internal">
        <lane id=":15_18_0" index="0" speed="13.90" length="6.92" shape="4019.72,1725.01 4020.69,1719.72 4021.54,1718.43"/>
    </edge>
    <edge id=":15_19" function="internal">
        <lane id=":15_19_0" index="0" speed="13.90" length="2.34" shape="4019.72,1725.01 4020.57,1723.84 4021.38,1723.47"/>
    </edge>
    <edge id=":15_26" function="internal">
        <lane id=":15_26_0" index="0" speed="13.90" length="12.64" shape="4021.54,1718.43 4023.12,1716.05 4027.01,1714.01 4032.38,1713.59"/>
    </edge>
    <edge id=":15_27" function="internal">
        <lane id=":15_27_0" index="0" speed="13.90" length="2.34" shape="4021.38,1723.47 4022.17,1723.90 4022.92,1725.13"/>
    </edge>
    <edge id=":16_0" function="internal">
        <lane id=":16_0_0" index="0" speed="13.90" length="9.03" shape="5598.23,3730.46 5595.78,3730.73 5593.99,3731.72 5592.87,3733.43 5592.41,3735.86"/>
    </edge>
    <edge id=":16_1" function="internal">
        <lane id=":16_1_0" index="0" speed="13.90" length="22.25" shape="5598.23,3730.46 5591.91,3730.20 5587.02,3729.83 5582.15,3729.21 5575.91,3728.22"/>
        <lane id=":16_1_1" index="1" speed="13.90" length="22.25" shape="5598.33,3727.26 5592.08,3727.01 5587.33,3726.65 5582.60,3726.04 5576.42,3725.06"/>
    </edge>
    <edge id=":16_3" function="internal">
        <lane id=":16_3_0" index="0" speed="13.90" length="6.84" shape="5598.33,3727.26 5593.14,3726.28 5591.86,3725.39"/>
    </edge>
    <edge id=":16_4" function="internal">
        <lane id=":16_4_0" index="0" speed="13.90" length="2.34" shape="5598.33,3727.26 5597.15,3726.42 5596.78,3725.61"/>
    </edge>
    <edge id=":16_20" function="internal">
        <lane id=":16_20_0" index="0" speed="13.90" length="13.46" shape="5591.86,3725.39 5589.43,3723.71 5587.20,3719.56 5586.46,3713.81"/>
    </edge>
    <edge id=":16_21" function="internal">
        <lane id=":16_21_0" index="0" speed="13.90" length="2.34" shape="5596.78,3725.61 5597.20,3724.82 5598.43,3724.06"/>
    </edge>
    <edge id=":16_5" function="internal">
        <lane id=":16_5_0" index="0" speed="13.90" length="10.22" shape="5592.86,3713.81 5593.21,3716.83 5594.28,3719.01 5596.05,3720.35 5598.53,3720.86"/>
    </edge>
    <edge id=":16_6" function="internal">
        <lane id=":16_6_0" index="0" speed="13.90" length="21.98" shape="5592.86,3713.81 5592.41,3735.86"/>
        <lane id=":16_6_1" index="1" speed="13.90" length="21.98" shape="5589.66,3713.81 5589.22,3735.72"/>
    </edge>
    <edge id=":16_8" function="internal">
        <lane id=":16_8_0" index="0" speed="13.90" length="7.46" shape="5589.66,3713.81 5588.83,3719.54 5587.92,3720.94"/>
    </edge>
    <edge id=":16_9" function="internal">
        <lane id=":16_9_0" index="0" speed="13.90" length="2.34" shape="5589.66,3713.81 5588.86,3715.01 5588.06,3715.41"/>
    </edge>
    <edge id=":16_22" function="internal">
        <lane id=":16_22_0" index="0" speed="13.90" length="13.17" shape="5587.92,3720.94 5586.35,3723.33 5582.21,3725.17 5576.42,3725.06"/>
    </edge>
    <edge id=":16_23" function="internal">
        <lane id=":16_23_0" index="0" speed="13.90" length="2.34" shape="5588.06,3715.41 5587.26,3715.01 5586.46,3713.81"/>
    </edge>
    <edge id=":16_10" function="internal">